12

C        0.153069584      0.000000000     -3.629753391
C       -1.002999108     -0.354690359     -2.931589391
C        1.309138277      0.354690359     -2.931589391
H       -1.902424215     -0.630640582     -3.474762391
H        2.208563384      0.630640582     -3.474762391
C       -1.002999108     -0.354690359     -1.535259391
C        1.309138277      0.354690359     -1.535259391
H       -1.902424215     -0.630640582     -0.992086391
H        2.208563384      0.630640582     -0.992086391
C        0.153069584      0.000000000     -0.837095391
H        0.153069584      0.000000000      0.249251609
H        0.153069584      0.000000000     -4.716100391
